test/test_files/IEEE_test_cases/IEEE 39 bus.EPC
title
NEW ENGLAND TEST SYSTEM, 39 BUSES, 9 GENERATORS
Created by Pablo Ledesma pablole@ing.uc3m.es
!
comments
!
solution parameters
tap    1    tcul  enabled/disabled
phas   1    ps    enabled/disabled
area   1    area  enabled/disabled
svd    1    svd   enabled/disabled
dctap  1    dc    enabled/disabled
gcd    1    gcd   enabled/disabled
jump  0.000290    jumper threshold
toler   0.0100    newton tolerance
sbase 100.0000    system mva base
!
bus data  [39]               ty  vsched   volt     angle    ar zone  vmax   vmin   date_in date_out pid L own st  latitude  longitude island    sdmon   vmax1      vmin1      dvmax
      1 "1           "   1.0000 :  1 1.051784 1.051784  -8.57204   1    1 1.1000 0.9000   400101   391231   0 0   1 0    0.00000    0.00000 0    0.00000    0.00000    0.00000
      2 "2           "   1.0000 :  1 1.059875 1.059875  -6.12848   1    1 1.1000 0.9000   400101   391231   0 0   1 0    0.00000    0.00000 0    0.00000    0.00000    0.00000
      3 "3           "   1.0000 :  1 1.056547 1.056547  -8.94682   1    1 1.1000 0.9000   400101   391231   0 0   1 0    0.00000    0.00000 0    0.00000    0.00000    0.00000
      4 "4           "   1.0000 :  1 1.059185 1.059185  -9.77877   1    1 1.1000 0.9000   400101   391231   0 0   1 0    0.00000    0.00000 0    0.00000    0.00000    0.00000
      5 "5           "   1.0000 :  1 1.073593 1.073593  -8.76746   1    1 1.1000 0.9000   400101   391231   0 0   1 0    0.00000    0.00000 0    0.00000    0.00000    0.00000
      6 "6           "   1.0000 :  1 1.074279 1.074279  -8.14276   1    1 1.1000 0.9000   400101   391231   0 0   1 0    0.00000    0.00000 0    0.00000    0.00000    0.00000
      7 "7           "   1.0000 :  1 1.061153 1.061153 -10.07654   1    1 1.1000 0.9000   400101   391231   0 0   1 0    0.00000    0.00000 0    0.00000    0.00000    0.00000
      8 "8           "   1.0000 :  1 1.058583 1.058583 -10.51802   1    1 1.1000 0.9000   400101   391231   0 0   1 0    0.00000    0.00000 0    0.00000    0.00000    0.00000
      9 "9           "   1.0000 :  1 1.054019 1.054019 -10.27666   1    1 1.1000 0.9000   400101   391231   0 0   1 0    0.00000    0.00000 0    0.00000    0.00000    0.00000
     10 "10          "   1.0000 :  1 1.061059 1.061059  -5.86872   1    1 1.1000 0.9000   400101   391231   0 0   1 0    0.00000    0.00000 0    0.00000    0.00000    0.00000
     11 "11          "   1.0000 :  1 1.064287 1.064287  -6.65519   1    1 1.1000 0.9000   400101   391231   0 0   1 0    0.00000    0.00000 0    0.00000    0.00000    0.00000
     12 "12          "   1.0000 :  1 1.049343 1.049343  -6.63554   1    1 1.1000 0.9000   400101   391231   0 0   1 0    0.00000    0.00000 0    0.00000    0.00000    0.00000
     13 "13          "   1.0000 :  1 1.058697 1.058697  -6.51957   1    1 1.1000 0.9000   400101   391231   0 0   1 0    0.00000    0.00000 0    0.00000    0.00000    0.00000
     14 "14          "   1.0000 :  1 1.056138 1.056138  -8.03346   1    1 1.1000 0.9000   400101   391231   0 0   1 0    0.00000    0.00000 0    0.00000    0.00000    0.00000
     15 "15          "   1.0000 :  1 1.040892 1.040892  -8.30985   1    1 1.1000 0.9000   400101   391231   0 0   1 0    0.00000    0.00000 0    0.00000    0.00000    0.00000
     16 "16          "   1.0000 :  1 1.048530 1.048530  -6.90528   1    1 1.1000 0.9000   400101   391231   0 0   1 0    0.00000    0.00000 0    0.00000    0.00000    0.00000
     17 "17          "   1.0000 :  1 1.051745 1.051745  -7.86814   1    1 1.1000 0.9000   400101   391231   0 0   1 0    0.00000    0.00000 0    0.00000    0.00000    0.00000
     18 "18          "   1.0000 :  1 1.052327 1.052327  -8.69272   1    1 1.1000 0.9000   400101   391231   0 0   1 0    0.00000    0.00000 0    0.00000    0.00000    0.00000
     19 "19          "   1.0000 :  1 1.055994 1.055994  -2.33205   1    1 1.1000 0.9000   400101   391231   0 0   1 0    0.00000    0.00000 0    0.00000    0.00000    0.00000
     20 "20          "   1.0000 :  1 0.994223 0.994223  -3.72351   1    1 1.1000 0.9000   400101   391231   0 0   1 0    0.00000    0.00000 0    0.00000    0.00000    0.00000
     21 "21          "   1.0000 :  1 1.043552 1.043552  -4.54643   1    1 1.1000 0.9000   400101   391231   0 0   1 0    0.00000    0.00000 0    0.00000    0.00000    0.00000
     22 "22          "   1.0000 :  1 1.056108 1.056108  -0.15695   1    1 1.1000 0.9000   400101   391231   0 0   1 0    0.00000    0.00000 0    0.00000    0.00000    0.00000
     23 "23          "   1.0000 :  1 1.051323 1.051323  -0.35323   1    1 1.1000 0.9000   400101   391231   0 0   1 0    0.00000    0.00000 0    0.00000    0.00000    0.00000
     24 "24          "   1.0000 :  1 1.052584 1.052584  -6.78536   1    1 1.1000 0.9000   400101   391231   0 0   1 0    0.00000    0.00000 0    0.00000    0.00000    0.00000
     25 "25          "   1.0000 :  1 1.065815 1.065815  -4.69486   1    1 1.1000 0.9000   400101   391231   0 0   1 0    0.00000    0.00000 0    0.00000    0.00000    0.00000
     26 "26          "   1.0000 :  1 1.062293 1.062293  -5.97230   1    1 1.1000 0.9000   400101   391231   0 0   1 0    0.00000    0.00000 0    0.00000    0.00000    0.00000
     27 "27          "   1.0000 :  1 1.051733 1.051733  -7.97180   1    1 1.1000 0.9000   400101   391231   0 0   1 0    0.00000    0.00000 0    0.00000    0.00000    0.00000
     28 "28          "   1.0000 :  1 1.055409 1.055409  -2.49019   1    1 1.1000 0.9000   400101   391231   0 0   1 0    0.00000    0.00000 0    0.00000    0.00000    0.00000
     29 "29          "   1.0000 :  1 1.053569 1.053569   0.25325   1    1 1.1000 0.9000   400101   391231   0 0   1 0    0.00000    0.00000 0    0.00000    0.00000    0.00000
     30 "30          "   1.0000 :  2 1.04750 1.047500  -3.73416   1    1 1.1000 0.9000   400101   391231   0 0   1 0    0.00000    0.00000 0    0.00000    0.00000    0.00000
     31 "31          "   1.0000 :  0 0.98200 0.982000  -1.58680   1    1 1.1000 0.9000   400101   391231   0 0   1 0    0.00000    0.00000 0    0.00000    0.00000    0.00000
     32 "32          "   1.0000 :  2 0.98310 0.983100   1.79444   1    1 1.1000 0.9000   400101   391231   0 0   1 0    0.00000    0.00000 0    0.00000    0.00000    0.00000
     33 "33          "   1.0000 :  2 0.99720 0.997200   2.87149   1    1 1.1000 0.9000   400101   391231   0 0   1 0    0.00000    0.00000 0    0.00000    0.00000    0.00000
     34 "34          "   1.0000 :  2 1.01230 1.012300   1.45902   1    1 1.1000 0.9000   400101   391231   0 0   1 0    0.00000    0.00000 0    0.00000    0.00000    0.00000
     35 "35          "   1.0000 :  2 1.04930 1.049300   4.77505   1    1 1.1000 0.9000   400101   391231   0 0   1 0    0.00000    0.00000 0    0.00000    0.00000    0.00000
     36 "36          "   1.0000 :  2 1.06350 1.063500   7.45720   1    1 1.1000 0.9000   400101   391231   0 0   1 0    0.00000    0.00000 0    0.00000    0.00000    0.00000
     37 "37          "   1.0000 :  2 1.02780 1.027800   2.04848   1    1 1.1000 0.9000   400101   391231   0 0   1 0    0.00000    0.00000 0    0.00000    0.00000    0.00000
     38 "38          "   1.0000 :  2 1.02650 1.026500   7.30239   1    1 1.1000 0.9000   400101   391231   0 0   1 0    0.00000    0.00000 0    0.00000    0.00000    0.00000
     39 "39          "   1.0000 :  2 1.03000 1.030000 -10.06380   1    1 1.1000 0.9000   400101   391231   0 0   1 0    0.00000    0.00000 0    0.00000    0.00000    0.00000
branch data  [   34]                                          ck  se  ------------long_id_------------    st resist   react   charge   rate1  rate2  rate3  rate4 aloss  lngth
      1 "1           "   1.00       2 "2           "   1.00  "1 "  1 "                                " :  1  0.003500  0.041100  0.698700    0.0    0.0    1.0    0.0 0.000    1.0 /
   1    1  0.000000  0.000000  1.000000   400101   391231   0 1  0    0.0    0.0    0.0    0.0   1 1.000   0 0.000   0 0.000   0 0.000   0 0.000   0 0.000   0 0.000   0 0.000  0 0
      1 "1           "   1.00      39 "39          "   1.00  "1 "  1 "                                " :  1  0.001000  0.025000  0.750000    0.0    0.0    1.0    0.0 0.000    1.0 /
   1    1  0.000000  0.000000  1.000000   400101   391231   0 1  0    0.0    0.0    0.0    0.0   1 1.000   0 0.000   0 0.000   0 0.000   0 0.000   0 0.000   0 0.000   0 0.000  0 0
      2 "2           "   1.00       3 "3           "   1.00  "1 "  1 "                                " :  1  0.001300  0.015100  0.257200    0.0    0.0    1.0    0.0 0.000    1.0 /
   1    1  0.000000  0.000000  1.000000   400101   391231   0 1  0    0.0    0.0    0.0    0.0   1 1.000   0 0.000   0 0.000   0 0.000   0 0.000   0 0.000   0 0.000   0 0.000  0 0
      2 "2           "   1.00      25 "25          "   1.00  "1 "  1 "                                " :  1  0.007000  0.008600  0.146000    0.0    0.0    1.0    0.0 0.000    1.0 /
   1    1  0.000000  0.000000  1.000000   400101   391231   0 1  0    0.0    0.0    0.0    0.0   1 1.000   0 0.000   0 0.000   0 0.000   0 0.000   0 0.000   0 0.000   0 0.000  0 0
      3 "3           "   1.00       4 "4           "   1.00  "1 "  1 "                                " :  1  0.001300  0.021300  0.221400    0.0    0.0    1.0    0.0 0.000    1.0 /
   1    1  0.000000  0.000000  1.000000   400101   391231   0 1  0    0.0    0.0    0.0    0.0   1 1.000   0 0.000   0 0.000   0 0.000   0 0.000   0 0.000   0 0.000   0 0.000  0 0
      3 "3           "   1.00      18 "18          "   1.00  "1 "  1 "                                " :  1  0.001100  0.013300  0.213800    0.0    0.0    1.0    0.0 0.000    1.0 /
   1    1  0.000000  0.000000  1.000000   400101   391231   0 1  0    0.0    0.0    0.0    0.0   1 1.000   0 0.000   0 0.000   0 0.000   0 0.000   0 0.000   0 0.000   0 0.000  0 0
      4 "4           "   1.00       5 "5           "   1.00  "1 "  1 "                                " :  1  0.000800  0.012800  0.134200    0.0    0.0    1.0    0.0 0.000    1.0 /
   1    1  0.000000  0.000000  1.000000   400101   391231   0 1  0    0.0    0.0    0.0    0.0   1 1.000   0 0.000   0 0.000   0 0.000   0 0.000   0 0.000   0 0.000   0 0.000  0 0
      4 "4           "   1.00      14 "14          "   1.00  "1 "  1 "                                " :  1  0.000800  0.012900  0.138200    0.0    0.0    1.0    0.0 0.000    1.0 /
   1    1  0.000000  0.000000  1.000000   400101   391231   0 1  0    0.0    0.0    0.0    0.0   1 1.000   0 0.000   0 0.000   0 0.000   0 0.000   0 0.000   0 0.000   0 0.000  0 0
      5 "5           "   1.00       6 "6           "   1.00  "1 "  1 "                                " :  1  0.000200  0.002600  0.043400    0.0    0.0    1.0    0.0 1.000    1.0 /
   1    1  0.000000  0.000000  1.000000   400101   391231   0 1  0    0.0    0.0    0.0    0.0   1 1.000   0 0.000   0 0.000   0 0.000   0 0.000   0 0.000   0 0.000   0 0.000  0 0
      5 "5           "   1.00       8 "8           "   1.00  "1 "  1 "                                " :  1  0.000800  0.011200  0.147600    0.0    0.0    1.0    0.0 0.000    1.0 /
   1    1  0.000000  0.000000  1.000000   400101   391231   0 1  0    0.0    0.0    0.0    0.0   1 1.000   0 0.000   0 0.000   0 0.000   0 0.000   0 0.000   0 0.000   0 0.000  0 0
      6 "6           "   1.00       7 "7           "   1.00  "1 "  1 "                                " :  1  0.000600  0.009200  0.113000    0.0    0.0    1.0    0.0 0.000    1.0 /
   1    1  0.000000  0.000000  1.000000   400101   391231   0 1  0    0.0    0.0    0.0    0.0   1 1.000   0 0.000   0 0.000   0 0.000   0 0.000   0 0.000   0 0.000   0 0.000  0 0
      6 "6           "   1.00      11 "11          "   1.00  "1 "  1 "                                " :  1  0.000700  0.008200  0.138900    0.0    0.0    1.0    0.0 0.000    1.0 /
   1    1  0.000000  0.000000  1.000000   400101   391231   0 1  0    0.0    0.0    0.0    0.0   1 1.000   0 0.000   0 0.000   0 0.000   0 0.000   0 0.000   0 0.000   0 0.000  0 0
      7 "7           "   1.00       8 "8           "   1.00  "1 "  1 "                                " :  1  0.000400  0.004600  0.078000    0.0    0.0    1.0    0.0 0.000    1.0 /
   1    1  0.000000  0.000000  1.000000   400101   391231   0 1  0    0.0    0.0    0.0    0.0   1 1.000   0 0.000   0 0.000   0 0.000   0 0.000   0 0.000   0 0.000   0 0.000  0 0
      8 "8           "   1.00       9 "9           "   1.00  "1 "  1 "                                " :  1  0.002300  0.036300  0.380400    0.0    0.0    1.0    0.0 0.000    1.0 /
   1    1  0.000000  0.000000  1.000000   400101   391231   0 1  0    0.0    0.0    0.0    0.0   1 1.000   0 0.000   0 0.000   0 0.000   0 0.000   0 0.000   0 0.000   0 0.000  0 0
      9 "9           "   1.00      39 "39          "   1.00  "1 "  1 "                                " :  1  0.001000  0.025000  1.200000    0.0    0.0    1.0    0.0 0.000    1.0 /
   1    1  0.000000  0.000000  1.000000   400101   391231   0 1  0    0.0    0.0    0.0    0.0   1 1.000   0 0.000   0 0.000   0 0.000   0 0.000   0 0.000   0 0.000   0 0.000  0 0
     10 "10          "   1.00      11 "11          "   1.00  "1 "  1 "                                " :  1  0.000400  0.004300  0.072900    0.0    0.0    1.0    0.0 0.000    1.0 /
   1    1  0.000000  0.000000  1.000000   400101   391231   0 1  0    0.0    0.0    0.0    0.0   1 1.000   0 0.000   0 0.000   0 0.000   0 0.000   0 0.000   0 0.000   0 0.000  0 0
     10 "10          "   1.00      13 "13          "   1.00  "1 "  1 "                                " :  1  0.000400  0.004300  0.072900    0.0    0.0    1.0    0.0 0.000    1.0 /
   1    1  0.000000  0.000000  1.000000   400101   391231   0 1  0    0.0    0.0    0.0    0.0   1 1.000   0 0.000   0 0.000   0 0.000   0 0.000   0 0.000   0 0.000   0 0.000  0 0
     13 "13          "   1.00      14 "14          "   1.00  "1 "  1 "                                " :  1  0.000900  0.010100  0.172300    0.0    0.0    1.0    0.0 0.000    1.0 /
   1    1  0.000000  0.000000  1.000000   400101   391231   0 1  0    0.0    0.0    0.0    0.0   1 1.000   0 0.000   0 0.000   0 0.000   0 0.000   0 0.000   0 0.000   0 0.000  0 0
     14 "14          "   1.00      15 "15          "   1.00  "1 "  1 "                                " :  1  0.001800  0.021700  0.366000    0.0    0.0    1.0    0.0 0.000    1.0 /
   1    1  0.000000  0.000000  1.000000   400101   391231   0 1  0    0.0    0.0    0.0    0.0   1 1.000   0 0.000   0 0.000   0 0.000   0 0.000   0 0.000   0 0.000   0 0.000  0 0
     15 "15          "   1.00      16 "16          "   1.00  "1 "  1 "                                " :  1  0.000900  0.009400  0.171000    0.0    0.0    1.0    0.0 0.000    1.0 /
   1    1  0.000000  0.000000  1.000000   400101   391231   0 1  0    0.0    0.0    0.0    0.0   1 1.000   0 0.000   0 0.000   0 0.000   0 0.000   0 0.000   0 0.000   0 0.000  0 0
     16 "16          "   1.00      17 "17          "   1.00  "1 "  1 "                                " :  1  0.000700  0.008900  0.134200    0.0    0.0    1.0    0.0 0.000    1.0 /
   1    1  0.000000  0.000000  1.000000   400101   391231   0 1  0    0.0    0.0    0.0    0.0   1 1.000   0 0.000   0 0.000   0 0.000   0 0.000   0 0.000   0 0.000   0 0.000  0 0
     16 "16          "   1.00      19 "19          "   1.00  "1 "  1 "                                " :  1  0.001600  0.019500  0.304000    0.0    0.0    1.0    0.0 0.000    1.0 /
   1    1  0.000000  0.000000  1.000000   400101   391231   0 1  0    0.0    0.0    0.0    0.0   1 1.000   0 0.000   0 0.000   0 0.000   0 0.000   0 0.000   0 0.000   0 0.000  0 0
     16 "16          "   1.00      21 "21          "   1.00  "1 "  1 "                                " :  1  0.000800  0.013500  0.254800    0.0    0.0    1.0    0.0 0.000    1.0 /
   1    1  0.000000  0.000000  1.000000   400101   391231   0 1  0    0.0    0.0    0.0    0.0   1 1.000   0 0.000   0 0.000   0 0.000   0 0.000   0 0.000   0 0.000   0 0.000  0 0
     16 "16          "   1.00      24 "24          "   1.00  "1 "  1 "                                " :  1  0.000300  0.005900  0.068000    0.0    0.0    1.0    0.0 0.000    1.0 /
   1    1  0.000000  0.000000  1.000000   400101   391231   0 1  0    0.0    0.0    0.0    0.0   1 1.000   0 0.000   0 0.000   0 0.000   0 0.000   0 0.000   0 0.000   0 0.000  0 0
     17 "17          "   1.00      18 "18          "   1.00  "1 "  1 "                                " :  1  0.000700  0.008200  0.131900    0.0    0.0    1.0    0.0 0.000    1.0 /
   1    1  0.000000  0.000000  1.000000   400101   391231   0 1  0    0.0    0.0    0.0    0.0   1 1.000   0 0.000   0 0.000   0 0.000   0 0.000   0 0.000   0 0.000   0 0.000  0 0
     17 "17          "   1.00      27 "27          "   1.00  "1 "  1 "                                " :  1  0.001300  0.017300  0.321600    0.0    0.0    1.0    0.0 0.000    1.0 /
   1    1  0.000000  0.000000  1.000000   400101   391231   0 1  0    0.0    0.0    0.0    0.0   1 1.000   0 0.000   0 0.000   0 0.000   0 0.000   0 0.000   0 0.000   0 0.000  0 0
     21 "21          "   1.00      22 "22          "   1.00  "1 "  1 "                                " :  1  0.000800  0.014000  0.256500    0.0    0.0    1.0    0.0 0.000    1.0 /
   1    1  0.000000  0.000000  1.000000   400101   391231   0 1  0    0.0    0.0    0.0    0.0   1 1.000   0 0.000   0 0.000   0 0.000   0 0.000   0 0.000   0 0.000   0 0.000  0 0
     22 "22          "   1.00      23 "23          "   1.00  "1 "  1 "                                " :  1  0.000600  0.009600  0.184600    0.0    0.0    1.0    0.0 0.000    1.0 /
   1    1  0.000000  0.000000  1.000000   400101   391231   0 1  0    0.0    0.0    0.0    0.0   1 1.000   0 0.000   0 0.000   0 0.000   0 0.000   0 0.000   0 0.000   0 0.000  0 0
     23 "23          "   1.00      24 "24          "   1.00  "1 "  1 "                                " :  1  0.002200  0.035000  0.361000    0.0    0.0    1.0    0.0 0.000    1.0 /
   1    1  0.000000  0.000000  1.000000   400101   391231   0 1  0    0.0    0.0    0.0    0.0   1 1.000   0 0.000   0 0.000   0 0.000   0 0.000   0 0.000   0 0.000   0 0.000  0 0
     25 "25          "   1.00      26 "26          "   1.00  "1 "  1 "                                " :  1  0.003200  0.032300  0.513000    0.0    0.0    1.0    0.0 0.000    1.0 /
   1    1  0.000000  0.000000  1.000000   400101   391231   0 1  0    0.0    0.0    0.0    0.0   1 1.000   0 0.000   0 0.000   0 0.000   0 0.000   0 0.000   0 0.000   0 0.000  0 0
     26 "26          "   1.00      27 "27          "   1.00  "1 "  1 "                                " :  1  0.001400  0.014700  0.239600    0.0    0.0    1.0    0.0 0.000    1.0 /
   1    1  0.000000  0.000000  1.000000   400101   391231   0 1  0    0.0    0.0    0.0    0.0   1 1.000   0 0.000   0 0.000   0 0.000   0 0.000   0 0.000   0 0.000   0 0.000  0 0
     26 "26          "   1.00      28 "28          "   1.00  "1 "  1 "                                " :  1  0.004300  0.047400  0.780200    0.0    0.0    1.0    0.0 0.000    1.0 /
   1    1  0.000000  0.000000  1.000000   400101   391231   0 1  0    0.0    0.0    0.0    0.0   1 1.000   0 0.000   0 0.000   0 0.000   0 0.000   0 0.000   0 0.000   0 0.000  0 0
     26 "26          "   1.00      29 "29          "   1.00  "1 "  1 "                                " :  1  0.005700  0.062500  1.029000    0.0    0.0    1.0    0.0 0.000    1.0 /
   1    1  0.000000  0.000000  1.000000   400101   391231   0 1  0    0.0    0.0    0.0    0.0   1 1.000   0 0.000   0 0.000   0 0.000   0 0.000   0 0.000   0 0.000   0 0.000  0 0
     28 "28          "   1.00      29 "29          "   1.00  "1 "  1 "                                " :  1  0.001400  0.015100  0.249000    0.0    0.0    1.0    0.0 0.000    1.0 /
   1    1  0.000000  0.000000  1.000000   400101   391231   0 1  0    0.0    0.0    0.0    0.0   1 1.000   0 0.000   0 0.000   0 0.000   0 0.000   0 0.000   0 0.000   0 0.000  0 0
transformer data  [  12]                                     ck   ------------long_id_------------     st ty --no---    reg_name          zt         int                              tert                   ar zone  tbase   ps_r    ps_x    pt_r    pt_x    ts_r    ts_x
      2 "2           "   1.00      30 "30          "   1.00  "1 " "                                " :  1  1       0 "            "   0.00  0       0 "            "   0.00       0 "            "   0.00    1    1 100.000000 0.000000E+000 1.810000E-002 0.000000E+000 0.000000E+000 0.000000E+000 0.000000E+000 /
  1.000000  1.000000  0.000000  0.000000 0.000000E+000 0.000000E+000    0.0    0.0    0.0    0.0 0.000  1.200000  0.800000  1.200000  0.800000 -0.057143  1.025000  1.000000  1.000000  1.000000   400101   391231   0 1     0.0    0.0    0.0    0.0 /
   1 1.000   0 0.000   0 0.000   0 0.000   0 0.000   0 0.000   0 0.000   0 0.000  0 /
   0.000000   0.000000  0.000000  0.000000     0.0    0.0    0.0     0.0    0.0    0.0 0.000 0.000  0  0  0 0.0000 0.0000 0
     10 "10          "   1.00      32 "32          "   1.00  "1 " "                                " :  1  1       0 "            "   0.00  0       0 "            "   0.00       0 "            "   0.00    1    1 100.000000 0.000000E+000 2.000000E-002 0.000000E+000 0.000000E+000 0.000000E+000 0.000000E+000 /
  1.000000  1.000000  0.000000  0.000000 0.000000E+000 0.000000E+000    0.0    0.0    0.0    0.0 0.000  1.200000  0.800000  1.200000  0.800000 -0.057143  1.070000  1.000000  1.000000  1.000000   400101   391231   0 1     0.0    0.0    0.0    0.0 /
   1 1.000   0 0.000   0 0.000   0 0.000   0 0.000   0 0.000   0 0.000   0 0.000  0 /
   0.000000   0.000000  0.000000  0.000000     0.0    0.0    0.0     0.0    0.0    0.0 0.000 0.000  0  0  0 0.0000 0.0000 0
     12 "12          "   1.00      11 "11          "   1.00  "1 " "                                " :  1  1       0 "            "   0.00  0       0 "            "   0.00       0 "            "   0.00    1    1 100.000000 1.600000E-003 4.350000E-002 0.000000E+000 0.000000E+000 0.000000E+000 0.000000E+000 /
  1.000000  1.000000  0.000000  0.000000 0.000000E+000 0.000000E+000    0.0    0.0    0.0    0.0 0.000  1.200000  0.800000  1.200000  0.800000 -0.057143  1.006000  1.000000  1.000000  1.000000   400101   391231   0 1     0.0    0.0    0.0    0.0 /
   1 1.000   0 0.000   0 0.000   0 0.000   0 0.000   0 0.000   0 0.000   0 0.000  0 /
   0.000000   0.000000  0.000000  0.000000     0.0    0.0    0.0     0.0    0.0    0.0 0.000 0.000  0  0  0 0.0000 0.0000 0
     12 "12          "   1.00      13 "13          "   1.00  "1 " "                                " :  1  1       0 "            "   0.00  0       0 "            "   0.00       0 "            "   0.00    1    1 100.000000 1.600000E-003 4.350000E-002 0.000000E+000 0.000000E+000 0.000000E+000 0.000000E+000 /
  1.000000  1.000000  0.000000  0.000000 0.000000E+000 0.000000E+000    0.0    0.0    0.0    0.0 0.000  1.200000  0.800000  1.200000  0.800000 -0.057143  1.006000  1.000000  1.000000  1.000000   400101   391231   0 1     0.0    0.0    0.0    0.0 /
   1 1.000   0 0.000   0 0.000   0 0.000   0 0.000   0 0.000   0 0.000   0 0.000  0 /
   0.000000   0.000000  0.000000  0.000000     0.0    0.0    0.0     0.0    0.0    0.0 0.000 0.000  0  0  0 0.0000 0.0000 0
     19 "19          "   1.00      20 "20          "   1.00  "1 " "                                " :  1  1       0 "            "   0.00  0       0 "            "   0.00       0 "            "   0.00    1    1 100.000000 7.000000E-004 1.380000E-002 0.000000E+000 0.000000E+000 0.000000E+000 0.000000E+000 /
  1.000000  1.000000  0.000000  0.000000 0.000000E+000 0.000000E+000    0.0    0.0    0.0    0.0 0.000  1.200000  0.800000  1.200000  0.800000 -0.057143  1.060000  1.000000  1.000000  1.000000   400101   391231   0 1     0.0    0.0    0.0    0.0 /
   1 1.000   0 0.000   0 0.000   0 0.000   0 0.000   0 0.000   0 0.000   0 0.000  0 /
   0.000000   0.000000  0.000000  0.000000     0.0    0.0    0.0     0.0    0.0    0.0 0.000 0.000  0  0  0 0.0000 0.0000 0
     19 "19          "   1.00      33 "33          "   1.00  "1 " "                                " :  1  1       0 "            "   0.00  0       0 "            "   0.00       0 "            "   0.00    1    1 100.000000 7.000000E-004 1.420000E-002 0.000000E+000 0.000000E+000 0.000000E+000 0.000000E+000 /
  1.000000  1.000000  0.000000  0.000000 0.000000E+000 0.000000E+000    0.0    0.0    0.0    0.0 0.000  1.200000  0.800000  1.200000  0.800000 -0.057143  1.070000  1.000000  1.000000  1.000000   400101   391231   0 1     0.0    0.0    0.0    0.0 /
   1 1.000   0 0.000   0 0.000   0 0.000   0 0.000   0 0.000   0 0.000   0 0.000  0 /
   0.000000   0.000000  0.000000  0.000000     0.0    0.0    0.0     0.0    0.0    0.0 0.000 0.000  0  0  0 0.0000 0.0000 0
     20 "20          "   1.00      34 "34          "   1.00  "1 " "                                " :  1  1       0 "            "   0.00  0       0 "            "   0.00       0 "            "   0.00    1    1 100.000000 9.000000E-004 1.800000E-002 0.000000E+000 0.000000E+000 0.000000E+000 0.000000E+000 /
  1.000000  1.000000  0.000000  0.000000 0.000000E+000 0.000000E+000    0.0    0.0    0.0    0.0 0.000  1.200000  0.800000  1.200000  0.800000 -0.057143  1.009000  1.000000  1.000000  1.000000   400101   391231   0 1     0.0    0.0    0.0    0.0 /
   1 1.000   0 0.000   0 0.000   0 0.000   0 0.000   0 0.000   0 0.000   0 0.000  0 /
   0.000000   0.000000  0.000000  0.000000     0.0    0.0    0.0     0.0    0.0    0.0 0.000 0.000  0  0  0 0.0000 0.0000 0
     22 "22          "   1.00      35 "35          "   1.00  "1 " "                                " :  1  1       0 "            "   0.00  0       0 "            "   0.00       0 "            "   0.00    1    1 100.000000 0.000000E+000 1.430000E-002 0.000000E+000 0.000000E+000 0.000000E+000 0.000000E+000 /
  1.000000  1.000000  0.000000  0.000000 0.000000E+000 0.000000E+000    0.0    0.0    0.0    0.0 0.000  1.200000  0.800000  1.200000  0.800000 -0.057143  1.025000  1.000000  1.000000  1.000000   400101   391231   0 1     0.0    0.0    0.0    0.0 /
   1 1.000   0 0.000   0 0.000   0 0.000   0 0.000   0 0.000   0 0.000   0 0.000  0 /
   0.000000   0.000000  0.000000  0.000000     0.0    0.0    0.0     0.0    0.0    0.0 0.000 0.000  0  0  0 0.0000 0.0000 0
     23 "23          "   1.00      36 "36          "   1.00  "1 " "                                " :  1  1       0 "            "   0.00  0       0 "            "   0.00       0 "            "   0.00    1    1 100.000000 5.000000E-004 2.720000E-002 0.000000E+000 0.000000E+000 0.000000E+000 0.000000E+000 /
  1.000000  1.000000  0.000000  0.000000 0.000000E+000 0.000000E+000    0.0    0.0    0.0    0.0 0.000  1.200000  0.800000  1.200000  0.800000 -0.057143  1.000000  1.000000  1.000000  1.000000   400101   391231   0 1     0.0    0.0    0.0    0.0 /
   1 1.000   0 0.000   0 0.000   0 0.000   0 0.000   0 0.000   0 0.000   0 0.000  0 /
   0.000000   0.000000  0.000000  0.000000     0.0    0.0    0.0     0.0    0.0    0.0 0.000 0.000  0  0  0 0.0000 0.0000 0
     25 "25          "   1.00      37 "37          "   1.00  "1 " "                                " :  1  1       0 "            "   0.00  0       0 "            "   0.00       0 "            "   0.00    1    1 100.000000 6.000000E-004 2.320000E-002 0.000000E+000 0.000000E+000 0.000000E+000 0.000000E+000 /
  1.000000  1.000000  0.000000  0.000000 0.000000E+000 0.000000E+000    0.0    0.0    0.0    0.0 0.000  1.200000  0.800000  1.200000  0.800000 -0.057143  1.025000  1.000000  1.000000  1.000000   400101   391231   0 1     0.0    0.0    0.0    0.0 /
   1 1.000   0 0.000   0 0.000   0 0.000   0 0.000   0 0.000   0 0.000   0 0.000  0 /
   0.000000   0.000000  0.000000  0.000000     0.0    0.0    0.0     0.0    0.0    0.0 0.000 0.000  0  0  0 0.0000 0.0000 0
     29 "29          "   1.00      38 "38          "   1.00  "1 " "                                " :  1  1       0 "            "   0.00  0       0 "            "   0.00       0 "            "   0.00    1    1 100.000000 8.000000E-004 1.560000E-002 0.000000E+000 0.000000E+000 0.000000E+000 0.000000E+000 /
  1.000000  1.000000  0.000000  0.000000 0.000000E+000 0.000000E+000    0.0    0.0    0.0    0.0 0.000  1.200000  0.800000  1.200000  0.800000 -0.057143  1.025000  1.000000  1.000000  1.000000   400101   391231   0 1     0.0    0.0    0.0    0.0 /
   1 1.000   0 0.000   0 0.000   0 0.000   0 0.000   0 0.000   0 0.000   0 0.000  0 /
   0.000000   0.000000  0.000000  0.000000     0.0    0.0    0.0     0.0    0.0    0.0 0.000 0.000  0  0  0 0.0000 0.0000 0
     31 "31          "   1.00       6 "6           "   1.00  "1 " "                                " :  1  2       6 "6           "   1.00  0       0 "            "   0.00       0 "            "   0.00    1    1 100.000000 0.000000E+000 2.500000E-002 0.000000E+000 0.000000E+000 0.000000E+000 0.000000E+000 /
  1.000000  1.000000  0.000000  0.000000 0.000000E+000 0.000000E+000    0.0    0.0    0.0    0.0 0.000  1.200000  0.800000  1.170000  0.980000 -0.057143  0.857143  1.000000  1.000000  1.000000   400101   391231   0 1     0.0    0.0    0.0    0.0 /
   1 1.000   0 0.000   0 0.000   0 0.000   0 0.000   0 0.000   0 0.000   0 0.000  0 /
   0.000000   0.000000  0.000000  0.000000     0.0    0.0    0.0     0.0    0.0    0.0 0.000 0.000  0  0  0 0.0000 0.0000 0
generator data  [  10]         id   ------------long_id_------------    st ---no--     reg_name           prf  qrf  ar zone   pgen   pmax   pmin   qgen   qmax   qmin   mbase  cmp_r cmp_x gen_r gen_x           hbus                         tbus                date_in date_out pid N
     30 "30          "   1.00 "1 " "                                " :  1      30 "30          "   1.00  0.000000  1.000000   1    1 250.000000 9999.900055   0.000000 83.210510 800.000000 -500.000000 100.0000 0.000 0.000 0.000 0.000      -1 "            "   0.00      -1 "            "   0.00    400101   391231   0 0 /
 0.0000 0.0000 1.0000   1 1.000   0 0.000   0 0.000   0 0.000    0 0.000    0 0.000    0 0.000    0 0.000    0   0   0   0   0   0   0    0.0 0 0  1.000000
     31 "31          "   1.00 "1 " "                                " :  1      31 "31          "   1.00  0.000000  1.000000   1    1 571.284819 9999.900055   0.000000 363.936329 800.000000 -500.000000 100.0000 0.000 0.000 0.000 0.000      -1 "            "   0.00      -1 "            "   0.00    400101   391231   0 0 /
 0.0000 0.0000 1.0000   1 1.000   0 0.000   0 0.000   0 0.000    0 0.000    0 0.000    0 0.000    0 0.000    0   0   0   0   0   0   0    0.0 0 0  1.000000
     32 "32          "   1.00 "1 " "                                " :  1      32 "32          "   1.00  0.000000  1.000000   1    1 650.000000 9999.900055   0.000000  1.533131 800.000000 -500.000000 100.0000 0.000 0.000 0.000 0.000      -1 "            "   0.00      -1 "            "   0.00    400101   391231   0 0 /
 0.0000 0.0000 1.0000   1 1.000   0 0.000   0 0.000   0 0.000    0 0.000    0 0.000    0 0.000    0 0.000    0   0   0   0   0   0   0    0.0 0 0  1.000000
     33 "33          "   1.00 "1 " "                                " :  1      33 "33          "   1.00  0.000000  1.000000   1    1 632.000017 9999.900055   0.000000 69.667047 800.000000 -500.000000 100.0000 0.000 0.000 0.000 0.000      -1 "            "   0.00      -1 "            "   0.00    400101   391231   0 0 /
 0.0000 0.0000 1.0000   1 1.000   0 0.000   0 0.000   0 0.000    0 0.000    0 0.000    0 0.000    0 0.000    0   0   0   0   0   0   0    0.0 0 0  1.000000
     34 "34          "   1.00 "1 " "                                " :  1      34 "34          "   1.00  0.000000  1.000000   1    1 507.999992 9999.900055   0.000000 148.790252 800.000000 -300.000000 100.0000 0.000 0.000 0.000 0.000      -1 "            "   0.00      -1 "            "   0.00    400101   391231   0 0 /
 0.0000 0.0000 1.0000   1 1.000   0 0.000   0 0.000   0 0.000    0 0.000    0 0.000    0 0.000    0 0.000    0   0   0   0   0   0   0    0.0 0 0  1.000000
     35 "35          "   1.00 "1 " "                                " :  1      35 "35          "   1.00  0.000000  1.000000   1    1 650.000000 9999.900055   0.000000 167.042851 800.000000 -500.000000 100.0000 0.000 0.000 0.000 0.000      -1 "            "   0.00      -1 "            "   0.00    400101   391231   0 0 /
 0.0000 0.0000 1.0000   1 1.000   0 0.000   0 0.000   0 0.000    0 0.000    0 0.000    0 0.000    0 0.000    0   0   0   0   0   0   0    0.0 0 0  1.000000
     36 "36          "   1.00 "1 " "                                " :  1      36 "36          "   1.00  0.000000  1.000000   1    1 559.999990 9999.900055   0.000000 75.449216 800.000000 -500.000000 100.0000 0.000 0.000 0.000 0.000      -1 "            "   0.00      -1 "            "   0.00    400101   391231   0 0 /
 0.0000 0.0000 1.0000   1 1.000   0 0.000   0 0.000   0 0.000    0 0.000    0 0.000    0 0.000    0 0.000    0   0   0   0   0   0   0    0.0 0 0  1.000000
     37 "37          "   1.00 "1 " "                                " :  1      37 "37          "   1.00  0.000000  1.000000   1    1 540.000010 9999.900055   0.000000 -35.347420 800.000000 -500.000000 100.0000 0.000 0.000 0.000 0.000      -1 "            "   0.00      -1 "            "   0.00    400101   391231   0 0 /
 0.0000 0.0000 1.0000   1 1.000   0 0.000   0 0.000   0 0.000    0 0.000    0 0.000    0 0.000    0 0.000    0   0   0   0   0   0   0    0.0 0 0  1.000000
     38 "38          "   1.00 "1 " "                                " :  1      38 "38          "   1.00  0.000000  1.000000   1    1 830.000019 9999.900055   0.000000 -0.472778 800.000000 -500.000000 100.0000 0.000 0.000 0.000 0.000      -1 "            "   0.00      -1 "            "   0.00    400101   391231   0 0 /
 0.0000 0.0000 1.0000   1 1.000   0 0.000   0 0.000   0 0.000    0 0.000    0 0.000    0 0.000    0 0.000    0   0   0   0   0   0   0    0.0 0 0  1.000000
     39 "39          "   1.00 "1 " "                                " :  1      39 "39          "   1.00  0.000000  1.000000   1    1 1000.000000 9999.900055   0.000000 -36.486816 1500.000000 -1000.000000 100.0000 0.000 0.000 0.000 0.000      -1 "            "   0.00      -1 "            "   0.00    400101   391231   0 0 /
 0.0000 0.0000 1.0000   1 1.000   0 0.000   0 0.000   0 0.000    0 0.000    0 0.000    0 0.000    0 0.000    0   0   0   0   0   0   0    0.0 0 0  1.000000
load data  [  31]             id   ------------long_id_------------     st      mw      mvar    mw_i    mvar_i  mw_z      mvar_z  ar zone  date_in date_out pid N own M nonc  thr_bus flg
      1 "1           "   1.00 "1 " "                                "  :  1 0.000000 0.000000 0.000000 0.000000 0.000000 0.000000   1    1   400101   391231   0 0   1 0    0       0 "            "   0.00   0
      2 "2           "   1.00 "1 " "                                "  :  1 0.000000 0.000000 0.000000 0.000000 0.000000 0.000000   1    1   400101   391231   0 0   1 0    0       0 "            "   0.00   0
      3 "3           "   1.00 "1 " "                                "  :  1 322.000003 2.400000 0.000000 0.000000 0.000000 0.000000   1    1   400101   391231   0 0   1 0    0       0 "            "   0.00   0
      4 "4           "   1.00 "1 " "                                "  :  1 500.000000 184.000003 0.000000 0.000000 0.000000 0.000000   1    1   400101   391231   0 0   1 0    0       0 "            "   0.00   0
      5 "5           "   1.00 "1 " "                                "  :  1 0.000000 0.000000 0.000000 0.000000 0.000000 0.000000   1    1   400101   391231   0 0   1 0    0       0 "            "   0.00   0
      6 "6           "   1.00 "1 " "                                "  :  1 0.000000 0.000000 0.000000 0.000000 0.000000 0.000000   1    1   400101   391231   0 0   1 0    0       0 "            "   0.00   0
      7 "7           "   1.00 "1 " "                                "  :  1 233.800006 83.999997 0.000000 0.000000 0.000000 0.000000   1    1   400101   391231   0 0   1 0    0       0 "            "   0.00   0
      8 "8           "   1.00 "1 " "                                "  :  1 521.999979 175.999999 0.000000 0.000000 0.000000 0.000000   1    1   400101   391231   0 0   1 0    0       0 "            "   0.00   0
      9 "9           "   1.00 "1 " "                                "  :  1 0.000000 0.000000 0.000000 0.000000 0.000000 0.000000   1    1   400101   391231   0 0   1 0    0       0 "            "   0.00   0
     10 "10          "   1.00 "1 " "                                "  :  1 0.000000 0.000000 0.000000 0.000000 0.000000 0.000000   1    1   400101   391231   0 0   1 0    0       0 "            "   0.00   0
     11 "11          "   1.00 "1 " "                                "  :  1 0.000000 0.000000 0.000000 0.000000 0.000000 0.000000   1    1   400101   391231   0 0   1 0    0       0 "            "   0.00   0
     12 "12          "   1.00 "1 " "                                "  :  1 7.500000 88.000000 0.000000 0.000000 0.000000 0.000000   1    1   400101   391231   0 0   1 0    0       0 "            "   0.00   0
     13 "13          "   1.00 "1 " "                                "  :  1 0.000000 0.000000 0.000000 0.000000 0.000000 0.000000   1    1   400101   391231   0 0   1 0    0       0 "            "   0.00   0
     14 "14          "   1.00 "1 " "                                "  :  1 0.000000 0.000000 0.000000 0.000000 0.000000 0.000000   1    1   400101   391231   0 0   1 0    0       0 "            "   0.00   0
     15 "15          "   1.00 "1 " "                                "  :  1 320.000005 152.999997 0.000000 0.000000 0.000000 0.000000   1    1   400101   391231   0 0   1 0    0       0 "            "   0.00   0
     16 "16          "   1.00 "1 " "                                "  :  1 329.399991 32.299998 0.000000 0.000000 0.000000 0.000000   1    1   400101   391231   0 0   1 0    0       0 "            "   0.00   0
     17 "17          "   1.00 "1 " "                                "  :  1 0.000000 0.000000 0.000000 0.000000 0.000000 0.000000   1    1   400101   391231   0 0   1 0    0       0 "            "   0.00   0
     18 "18          "   1.00 "1 " "                                "  :  1 158.000004 30.000001 0.000000 0.000000 0.000000 0.000000   1    1   400101   391231   0 0   1 0    0       0 "            "   0.00   0
     19 "19          "   1.00 "1 " "                                "  :  1 0.000000 0.000000 0.000000 0.000000 0.000000 0.000000   1    1   400101   391231   0 0   1 0    0       0 "            "   0.00   0
     20 "20          "   1.00 "1 " "                                "  :  1 680.000019 102.999997 0.000000 0.000000 0.000000 0.000000   1    1   400101   391231   0 0   1 0    0       0 "            "   0.00   0
     21 "21          "   1.00 "1 " "                                "  :  1 274.000001 114.999998 0.000000 0.000000 0.000000 0.000000   1    1   400101   391231   0 0   1 0    0       0 "            "   0.00   0
     22 "22          "   1.00 "1 " "                                "  :  1 0.000000 0.000000 0.000000 0.000000 0.000000 0.000000   1    1   400101   391231   0 0   1 0    0       0 "            "   0.00   0
     23 "23          "   1.00 "1 " "                                "  :  1 247.499990 84.599996 0.000000 0.000000 0.000000 0.000000   1    1   400101   391231   0 0   1 0    0       0 "            "   0.00   0
     24 "24          "   1.00 "1 " "                                "  :  1 308.599997 -92.199999 0.000000 0.000000 0.000000 0.000000   1    1   400101   391231   0 0   1 0    0       0 "            "   0.00   0
     25 "25          "   1.00 "1 " "                                "  :  1 224.000001 47.200000 0.000000 0.000000 0.000000 0.000000   1    1   400101   391231   0 0   1 0    0       0 "            "   0.00   0
     26 "26          "   1.00 "1 " "                                "  :  1 138.999999 17.000000 0.000000 0.000000 0.000000 0.000000   1    1   400101   391231   0 0   1 0    0       0 "            "   0.00   0
     27 "27          "   1.00 "1 " "                                "  :  1 280.999994 75.500000 0.000000 0.000000 0.000000 0.000000   1    1   400101   391231   0 0   1 0    0       0 "            "   0.00   0
     28 "28          "   1.00 "1 " "                                "  :  1 205.999994 27.599999 0.000000 0.000000 0.000000 0.000000   1    1   400101   391231   0 0   1 0    0       0 "            "   0.00   0
     29 "29          "   1.00 "1 " "                                "  :  1 283.500004 26.899999 0.000000 0.000000 0.000000 0.000000   1    1   400101   391231   0 0   1 0    0       0 "            "   0.00   0
     31 "31          "   1.00 "1 " "                                "  :  1 9.200000 4.600000 0.000000 0.000000 0.000000 0.000000   1    1   400101   391231   0 0   1 0    0       0 "            "   0.00   0
     39 "39          "   1.00 "1 " "                                "  :  1 1103.999996 250.000000 0.000000 0.000000 0.000000 0.000000   1    1   400101   391231   0 0   1 0    0       0 "            "   0.00   0
shunt data  [   2]             id                                 ck  se  ------------long_id_------------     st ar  zone    pu_mw  pu_mvar  date_in date_out pid N own part1 own part2 own part3 own part4 --num-- ----name----  --kv-- M --num--  ----name----  --kv--  ID  st
      4 "4           "   1.00 "b "       0 "            "   0.00 "  "  0 "                                "  :  1   1    1 0.000000 1.000000   400101   391231   0 0   1 1.000   0 0.000   0 0.000   0 0.000      -1 "            "   0.00 "  "  0 0
      5 "5           "   1.00 "b "       0 "            "   0.00 "  "  0 "                                "  :  1   1    1 0.000000 2.000000   400101   391231   0 0   1 1.000   0 0.000   0 0.000   0 0.000      -1 "            "   0.00 "  "  0 0
svd data  [   0]               id   ------------long_id_------------    st ty --no---     reg_name           ar zone      g      b  min_c  max_c  vband   bmin   bmax  date_in date_out pid N own part1 own part2 own part3 own part4 M st
area data  [  1]                            swing  desired    tol      pnet     qnet
    1 "1                               "       0    0.000    1.000   -0.001    0.000 0
zone data  [   1]                            pnet     qnet
    1 "1                               "   -0.001    0.000 0
interface data  [   0]                      pnet     qnet   -rate1- -rate2- -rate3- -rate4- -rate5- -rate6- -rate7- -rate8-
interface branch data  [    0]                              ck      -i_no-  part_fac
dc bus data  [ 0]             ty ar  zone   vsched     dc_volt  date_in date_out pid own
dc converter data  [ 0]                               id   long_id_    st ty md nb fg  --no---           reg   ar zone  date_in date_out
z table data  [ 0]  -tap2 fact2 -tap3 fact3 -tap4 fact4 -tap5 fact5 -tap6 fact6 -tap7 fact7 -tap8 fact8 -tap9 fact9 tap10 fac10 tap11 fac11
gcd data  [   0]
transaction data  [    0]              st    sch_mw   sch_mvar  flag stn pid         transaction name
owner data  [    1]    owner name           s name       net_mw   net_mvar     sch_mw   sch_mvar  ar
       1 "1                               " "    " :     0.000      0.000      0.000      0.000   0 0


qtable data     [   0]   id     p[0]   qmx[0]  qmn[0]  ....
end
